rawData/PhD-QE-CaseA-3cdf.txt
Washington State University Power Systems PhD QE Fall 2020 q03 case file
BUS DATA FOLLOWS                             3 ITEMS
   1 Bus 1     HV  1  1  3 1.000    0.0      0.0      0.0      0.0     0.0     0.0  1.000     0.0     0.0   0.0    0.0        0
   2 Bus 2     HV  1  1  2 1.040    0.0      0.0      0.0    100.0    30.0     0.0  1.040     0.0     0.0   0.0    0.0        0
   3 Bus 3     HV  1  1  2 1.050    0.0      0.0      0.0    100.0     0.0     0.0  1.050     0.0     0.0   0.0    0.0        0
-999 
BRANCH DATA FOLLOWS                          3 ITEMS
   1    2  1  1 1 0  0.00000   0.50000     0.0000     0     0     0    0 0  0.0       0.0 0.0    0.0     0.0    0.0   0.0
   1    3  1  1 1 0  0.00000   0.20000     0.0000     0     0     0    0 0  0.0       0.0 0.0    0.0     0.0    0.0   0.0
   2    3  1  1 1 0  0.00000   0.33333     0.0000     0     0     0    0 0  0.0       0.0 0.0    0.0     0.0    0.0   0.0
-999
END OF DATA
